$DATA1 SOURCE='HSPICE' VERSION='E-2010.12-SP2 32-BIT'
.TITLE '.global vss! vdd!'
 tdlays1a1        poweva1          poweva3half1     ya1               
 outa1            temper           alter#            
 -1.811e-13       -8.615e-15       -1.606e-15          1.0397         
    1.0660          25.0000        1                 
