$DATA1 SOURCE='HSPICE' VERSION='E-2010.12-SP2 32-BIT'
.TITLE '.global vss! vdd!'
 tdlays1a1        poweva1          poweva3half1     ya1               
 outa1            temper           alter#            
 -1.306e-13       -1.252e-14       -4.003e-15          1.0398         
    1.0660          25.0000        1                 
